LAMMPS (19 Nov 2024)
Loaded 1 plugins from C:\Users\moury\AppData\Local\LAMMPS 64-bit 19Nov2024\plugins
# LAMMPS Input Script for Molecular Dynamics Simulation

units           lj              # Lennard-Jones units
dimension       3               # 3D simulation
boundary        p p p           # Periodic boundary conditions
atom_style      atomic          # Define atom style

# Create a simulation box and generate atoms
lattice         fcc 0.844       # Face-centered cubic lattice
Lattice spacing in x,y,z = 1.6797289 1.6797289 1.6797289
region          box block 0 10 0 10 0 10   # Simulation box size
create_box      1 box           # Create a box for 1 atom type
Created orthogonal box = (0 0 0) to (16.797289 16.797289 16.797289)
create_atoms    1 box           # Create atoms inside the box
Created 4000 atoms

# Define the mass of atom type 1
mass 1 1.0  # Set the mass of atom type 1

# Define potential for atoms (Lennard-Jones potential)
pair_style      lj/cut 2.5      # LJ potential with cutoff distance
pair_coeff      1 1 1.0 1.0 2.5   # Parameters for atom type 1

# Set initial velocities of atoms
velocity        all create 1.0 12345 loop geom

# Define the integrator and timestep
fix             1 all nve      # NVE ensemble (constant volume and energy)
timestep        0.005          # Timestep in femtoseconds

# Output settings
dump            1 all atom 100 dump.lammps   # Output every 100 steps
thermo          100            # Output thermodynamic data every 100 steps

# Run the simulation for 10000 steps
run             10000
Generated 0 of 0 mixed pair_coeff terms from geometric mixing rule
Step          Temp          E_pair         E_mol          TotEng         Press
0   1             -6.7716177      0             -5.2719927     -5.3920221
Averages over the last 51 of 101 rows, steps 5000 to 10000:
Temp E_pair E_mol TotEng Press
0.544 -6.09483 0 -5.27903 -1.76736
Loop time of 14.8093 on 1 procs for 10000 steps with 4000 atoms
